/*--------------------------------*- C++ -*----------------------------------*\
| =========                 |                                                 |
| \\      /  F ield         | OpenFOAM: The Open Source CFD Toolbox           |
|  \\    /   O peration     | Version:  2206                                  |
|   \\  /    A nd           | Website:  www.openfoam.com                      |
|    \\/     M anipulation  |                                                 |
\*---------------------------------------------------------------------------*/
FoamFile
{
    version     2.0;
    format      ascii;
    arch        "LSB;label=32;scalar=64";
    class       polyBoundaryMesh;
    location    "constant/polyMesh";
    object      boundary;
}
// * * * * * * * * * * * * * * * * * * * * * * * * * * * * * * * * * * * * * //


6
(
flatplate
{
    type wall;
    nFaces 4888;
    startFace 267426;
}

outlet
{
    type patch;
    nFaces 484;
    startFace 272314;
}

inlet
{
    type patch;
    nFaces 484;
    startFace 272798;
}

sidewall
{
    type wall;
    nFaces 1848;
    startFace 273282;
}

upperwall
{
    type wall;
    nFaces 924;
    startFace 275130;
}

lowerwall
{
    type patch;
    nFaces 924;
    startFace 276054;
}

)


// ************************************************************************* //
